Version 4
SHEET 1 880 680
WIRE -96 -192 -96 -240
WIRE 160 112 -512 112
WIRE 128 128 -432 128
WIRE 160 144 -352 144
WIRE 464 144 304 144
WIRE 560 144 464 144
WIRE 128 160 -272 160
WIRE 160 176 -176 176
WIRE -512 208 -512 112
WIRE -432 208 -432 128
WIRE -352 208 -352 144
WIRE -272 208 -272 160
WIRE -176 208 -176 176
FLAG -96 -112 0
FLAG -96 -240 VDD
FLAG -512 288 0
FLAG -432 288 0
FLAG -352 288 0
FLAG -272 288 0
FLAG -176 288 0
FLAG 464 224 0
FLAG 560 208 0
FLAG 224 80 VDD
SYMBOL majority5 224 144 R0
SYMATTR InstName X1
SYMBOL voltage -96 -208 R0
WINDOW 123 0 0 Left 0
WINDOW 39 0 0 Left 0
SYMATTR InstName V1
SYMATTR Value 1
SYMBOL voltage -512 192 R0
WINDOW 123 0 0 Left 0
WINDOW 39 0 0 Left 0
SYMATTR InstName V2
SYMATTR Value 1
SYMBOL voltage -352 192 R0
WINDOW 123 0 0 Left 0
WINDOW 39 0 0 Left 0
SYMATTR InstName V3
SYMATTR Value 1
SYMBOL voltage -432 192 R0
WINDOW 123 0 0 Left 0
WINDOW 39 0 0 Left 0
SYMATTR InstName V4
SYMATTR Value 0
SYMBOL voltage -272 192 R0
WINDOW 123 0 0 Left 0
WINDOW 39 0 0 Left 0
SYMATTR InstName V5
SYMATTR Value 0
SYMBOL voltage -176 192 R0
WINDOW 123 0 0 Left 0
WINDOW 39 0 0 Left 0
SYMATTR InstName V6
SYMATTR Value 1
SYMBOL res 448 128 R0
SYMATTR InstName R1
SYMATTR Value 100k
SYMBOL cap 544 144 R0
SYMATTR InstName C1
SYMATTR Value 100f
TEXT -544 312 Left 2 !.tran 1
