Version 4
SHEET 1 880 680
WIRE -656 -16 -800 -16
WIRE -464 32 -464 -16
WIRE -800 64 -800 -16
WIRE -800 64 -864 64
WIRE 368 64 208 64
WIRE -656 80 -720 80
WIRE 368 96 368 64
WIRE 448 96 368 96
WIRE -304 112 -400 112
WIRE 688 128 560 128
WIRE 816 128 688 128
WIRE -464 144 -464 112
WIRE -944 160 -944 64
WIRE -944 160 -976 160
WIRE 448 160 368 160
WIRE 688 160 688 128
WIRE 816 176 816 128
WIRE -608 192 -608 160
WIRE -400 192 -400 112
WIRE -400 192 -608 192
WIRE -112 192 -256 192
WIRE 368 208 368 160
WIRE 368 208 208 208
WIRE -944 240 -944 160
WIRE -720 240 -720 80
WIRE -720 240 -864 240
WIRE -608 240 -608 192
WIRE -608 240 -656 240
WIRE -512 240 -608 240
WIRE -720 272 -720 240
WIRE -592 272 -720 272
WIRE -400 272 -400 192
WIRE -304 272 -400 272
WIRE 688 272 688 240
WIRE 816 272 816 240
WIRE -656 288 -656 240
WIRE -512 288 -512 240
WIRE -592 304 -592 272
WIRE -560 304 -592 304
WIRE -800 368 -800 64
WIRE -704 368 -800 368
WIRE -592 384 -656 384
WIRE -512 384 -592 384
WIRE -592 432 -592 384
FLAG -256 288 0
FLAG -976 160 0
FLAG -592 432 0
FLAG -464 144 0
FLAG -464 -16 VDD
FLAG -608 -32 VDD
FLAG -608 16 VDD
FLAG -608 112 VDD
FLAG -656 336 0
FLAG -512 336 0
FLAG -256 144 VDD
FLAG -256 240 0
FLAG -112 192 OUT
FLAG -256 96 VDD
FLAG 128 64 0
FLAG 128 208 0
FLAG 528 64 VDD
FLAG 688 272 0
FLAG 816 272 0
SYMBOL pmos4 -304 192 M180
SYMATTR InstName M1
SYMBOL nmos4 -304 192 R0
SYMATTR InstName M2
SYMBOL voltage -848 64 R90
WINDOW 0 -32 56 VBottom 2
WINDOW 3 32 56 VTop 2
WINDOW 123 0 0 Left 0
WINDOW 39 0 0 Left 0
SYMATTR InstName A
SYMATTR Value 1
SYMBOL voltage -848 240 R90
WINDOW 0 -32 56 VBottom 2
WINDOW 3 32 56 VTop 2
WINDOW 123 0 0 Left 0
WINDOW 39 0 0 Left 0
SYMATTR InstName B
SYMATTR Value 1
SYMBOL pmos4 -656 64 M180
WINDOW 0 60 26 Left 2
WINDOW 3 60 72 Left 2
SYMATTR InstName M3
SYMBOL pmos4 -656 160 M180
WINDOW 0 63 27 Left 2
SYMATTR InstName M4
SYMBOL nmos4 -704 288 R0
WINDOW 0 68 32 Left 2
WINDOW 3 67 63 Left 2
SYMATTR InstName M5
SYMBOL nmos4 -560 384 M180
WINDOW 0 64 28 Left 2
WINDOW 3 60 72 Left 2
SYMATTR InstName M6
SYMBOL voltage -464 16 R0
WINDOW 123 0 0 Left 0
WINDOW 39 0 0 Left 0
SYMATTR InstName V1
SYMATTR Value 1
SYMBOL voltage 224 64 R90
WINDOW 0 -32 56 VBottom 2
WINDOW 3 32 56 VTop 2
WINDOW 123 0 0 Left 0
WINDOW 39 0 0 Left 0
SYMATTR InstName V2
SYMATTR Value PULSE(0 1 1ms 10n 10n 3ms 6ms)
SYMBOL nor 512 128 R0
SYMATTR InstName X1
SYMBOL voltage 224 208 R90
WINDOW 0 -32 56 VBottom 2
WINDOW 3 32 56 VTop 2
WINDOW 123 0 0 Left 0
WINDOW 39 0 0 Left 0
SYMATTR InstName V3
SYMATTR Value PULSE(0 1 3ms 10n 10n 10ms 20ms)
SYMBOL res 672 144 R0
SYMATTR InstName R1
SYMATTR Value 100k
SYMBOL cap 800 176 R0
SYMATTR InstName C1
SYMATTR Value 100f
TEXT -952 -240 Left 2 !.tran 0 16n 0 1p
TEXT -952 -208 Left 2 !.include 90nm_bulk.txt
