Version 4
SHEET 1 912 680
WIRE 720 -144 720 -176
WIRE 720 -96 720 -144
WIRE 368 64 208 64
WIRE 368 96 368 64
WIRE 448 96 368 96
WIRE 736 128 560 128
WIRE 848 128 736 128
WIRE 448 160 368 160
WIRE 368 208 368 160
WIRE 368 208 208 208
FLAG 128 64 0
FLAG 128 208 0
FLAG 528 64 VDD
FLAG 848 192 0
FLAG 720 -16 0
FLAG 720 -144 VDD
FLAG 736 208 0
SYMBOL voltage 224 64 R90
WINDOW 0 -32 56 VBottom 2
WINDOW 3 32 56 VTop 2
WINDOW 123 0 0 Left 0
WINDOW 39 0 0 Left 0
SYMATTR InstName V2
SYMATTR Value PULSE(0 1 100n 1000p 1000p 200n 400n)
SYMBOL nor 512 128 R0
WINDOW 39 0 0 Left 0
SYMATTR InstName X1
SYMATTR SpiceLine T_SIZE=4
SYMBOL voltage 224 208 R90
WINDOW 0 -32 56 VBottom 2
WINDOW 3 32 56 VTop 2
WINDOW 123 0 0 Left 0
WINDOW 39 0 0 Left 0
SYMATTR InstName V3
SYMATTR Value PULSE(0 1 200n 1000p 1000p 200n 400n)
SYMBOL cap 832 128 R0
SYMATTR InstName C1
SYMATTR Value 100f
SYMBOL voltage 720 -112 R0
WINDOW 123 0 0 Left 0
WINDOW 39 0 0 Left 0
SYMATTR InstName V1
SYMATTR Value 1
SYMBOL res 720 112 R0
SYMATTR InstName R1
SYMATTR Value 100k
TEXT 176 -176 Left 2 !.tran 0 1600n 0 100p
TEXT 176 -208 Left 2 !.include 90nm_bulk.txt
