Version 4
SHEET 1 1372 1632
WIRE 176 544 160 544
WIRE 160 576 160 544
WIRE 160 576 112 576
WIRE 400 576 288 576
WIRE 160 608 160 576
WIRE 176 608 160 608
WIRE 400 672 400 576
WIRE 608 672 576 672
WIRE 576 704 576 672
WIRE 576 704 512 704
WIRE 720 704 704 704
WIRE 736 704 720 704
WIRE 576 736 576 704
WIRE 608 736 576 736
WIRE 192 800 160 800
WIRE 160 832 160 800
WIRE 160 832 112 832
WIRE 400 832 400 736
WIRE 400 832 304 832
WIRE 160 864 160 832
WIRE 192 864 160 864
WIRE 736 896 736 704
WIRE 784 896 736 896
WIRE 976 928 896 928
WIRE 784 960 480 960
WIRE 192 1040 160 1040
WIRE 160 1072 160 1040
WIRE 160 1072 112 1072
WIRE 480 1072 480 960
WIRE 480 1072 304 1072
WIRE 160 1104 160 1072
WIRE 192 1104 160 1104
WIRE 208 1104 192 1104
FLAG 112 576 VA
IOPIN 112 576 In
FLAG 112 832 VB
IOPIN 112 832 In
FLAG 112 1072 VC
IOPIN 112 1072 In
FLAG 256 512 VDD
IOPIN 256 512 In
FLAG 480 640 VDD
IOPIN 480 640 In
FLAG 688 640 VDD
IOPIN 688 640 In
FLAG 272 768 VDD
IOPIN 272 768 In
FLAG 272 1008 VDD
IOPIN 272 1008 In
FLAG 864 864 VDD
IOPIN 864 864 In
FLAG 976 928 VOUT
IOPIN 976 928 Out
SYMBOL nor 256 832 R0
SYMATTR InstName X3
SYMBOL nor 464 704 R0
SYMATTR InstName X4
SYMBOL nor 256 1072 R0
SYMATTR InstName X5
SYMBOL nor 848 928 R0
SYMATTR InstName X7
SYMBOL nor 672 704 R0
SYMATTR InstName X6
SYMBOL nor 240 576 R0
SYMATTR InstName X1
